 is a 2D hydraulic model.
Author(s): Consortium open TELEMAC-MASCARET
Licence: GPL
MORE INFO
Serafin or Selafin is the format you need. It has the extensions ".res" or ".slf".
